(S (NP (NP (JJS Most) (JJ deep) (JJ neural) (NNS networks)) (VP (VBN deployed) (NP (NN today)))) (VP (VBP are) (VP (VBN trained) (S (VP (VBG using) (NP (NNP GPUs)) (PP (IN via) (NP (NP (JJ high-level) (NNS frameworks)) (PP (JJ such) (IN as) (NP (NNP TensorFlow) (CC and) (NNP PyTorch))))))))) (. .))
(S (NP (DT This) (NN paper)) (VP (VBZ describes) (NP (NP (NNS changes)) (SBAR (S (NP (PRP we)) (VP (VBD made) (PP (TO to) (NP (DT the) (NNP GPGPU-Sim) (NN simulator))) (S (VP (TO to) (VP (VB enable) (S (NP (PRP it)) (VP (TO to) (VP (VB run) (NP (NNP PyTorch)) (PP (IN by) (S (VP (VBG running) (NP (NP (NNP PTX) (NNS kernels)) (VP (VBN included) (PP (IN in) (NP (NP (NNP NVIDIA) (POS 's)) (NN cuDNN) (NN library))))))))))))))))))) (. .))
(S (NP (PRP We)) (VP (VBP use) (NP (NP (DT the) (VBG resulting) (JJ modified) (NN simulator)) (, ,) (SBAR (WHNP (WDT which)) (S (VP (VBZ has) (VP (VBN been) (VP (VBN made) (S (ADJP (JJ available))) (ADVP (RB publicly)) (PP (IN with) (NP (DT this) (NN paper)))))))) (, ,)) (S (VP (TO to) (VP (VB study) (NP (DT some) (JJ simple) (JJ deep) (NN learning) (NNS workloads)))))) (. .))
(S (PP (IN With) (NP (NP (PRP$ our) (NNS changes)) (PP (TO to) (NP (NP (NNP GPGPU-Sim) (POS 's)) (JJ functional) (NN simulation) (NN model))))) (, ,) (NP (PRP we)) (VP (VBP find) (SBAR (S (NP (NP (JJ GPGPU-Sim) (NN performance) (NN model)) (VP (VBG running) (NP (NP (DT a) (ADJP (NN cuDNN) (VBN enabled)) (NN implementation)) (PP (IN of) (NP (NP (NNP LeNet)) (PP (IN for) (NP (NNP MNIST)))))))) (VP (NNS reports) (NP (NP (NNS results)) (PP (IN within) (NP (NP (CD 30) (NN %)) (PP (IN of) (NP (JJ real) (NN hardware)))))))))) (. .))
(S (S (VP (VBG Using) (NP (NP (NNP GPGPU-Sim) (POS 's)) (NNP AerialVision) (NN performance) (NN analysis) (NN tool)))) (NP (PRP we)) (VP (VBP observe) (SBAR (DT that) (S (NP (NN cuDNN) (NNP API) (VBZ calls)) (VP (VP (VBP contain) (NP (JJ many) (NN varying) (NNS phases))) (CC and) (VP (VBP appear) (S (VP (TO to) (VP (VB include) (NP (NP (ADJP (RB potentially) (JJ inefficient)) (NN microarchitecture) (NN behaviour)) (PP (JJ such) (IN as) (NP (NNP DRAM) (NN partition) (NN bank) (NN camping))))))) (, ,) (SBAR (ADVP (IN at) (JJS least)) (WHADVP (WRB when)) (S (VP (VBN executed) (PP (IN on) (NP (NP (NNP GPGPU-Sim) (POS 's)) (JJ current) (NN performance) (NN model))))))))))) (. .))
