(S (NP (NP (NNP Finite) (NN element) (NN method)) (PRN (-LRB- -LRB-) (NP (NNP FEM)) (-RRB- -RRB-))) (VP (NNS suffers) (PP (IN from) (NP (DT a) (JJ serious) (JJ mesh) (NN distortion) (NN problem))) (SBAR (WHADVP (WRB when)) (S (VP (VBN used) (PP (IN for) (NP (JJ high) (NN velocity) (NN impact) (NNS analyses))))))) (. .))
(S (NP (DT The) (JJ smooth) (NN particle) (NNS hydrodynamics) (PRN (-LRB- -LRB-) (NP (NNP SPH)) (-RRB- -RRB-)) (NN method)) (VP (VBZ is) (ADJP (JJ appropriate) (PP (IN for) (NP (NP (DT this) (NN class)) (PP (IN of) (NP (NP (NNS problems)) (VP (VBG involving) (NP (JJ severe) (NNS damages)) (CC but) (PP (IN at) (NP (JJ considerable) (JJ computational) (NN cost)))))))))) (. .))
(S (NP (PRP It)) (VP (VBZ is) (ADJP (JJ beneficial)) (SBAR (IN if) (S (NP (DT the) (NN latter)) (VP (VP (VBZ is) (VP (VBN adopted) (PP (ADVP (RB only)) (IN in) (NP (ADJP (RB severely) (JJ distorted)) (NNS regions))))) (CC and) (VP (NP (NNP FEM)) (ADVP (RB further) (RB away))))))) (. .))
(S (NP (NP (DT The) (VBN coupled) (JJ smooth) (NN particle) (NNS hydrodynamics) (: -) (JJ finite) (NN element) (NN method)) (PRN (-LRB- -LRB-) (NP (NNP SFM)) (-RRB- -RRB-))) (VP (VBZ has) (VP (VBN been) (VP (VBN adopted) (PP (IN in) (NP (DT a) (JJ commercial) (NN hydrocode) (NP (NNP LS-DYNA)))) (S (VP (TO to) (VP (VB study) (NP (NP (DT the) (NN perforation)) (PP (IN of) (NP (NP (NP (NNP Weldox) (CD 460E) (NN steel)) (CC and) (NP (NNP AA5083-H116) (NN aluminum) (NNS plates))) (PP (IN with) (NP (NP (VBG varying) (NNS thicknesses)) (CC and) (NP (NP (JJ various) (NN projectile) (JJ nose) (NNS geometries)) (PP (VBG including) (NP (ADJP (NN blunt) (, ,) (JJ conical) (CC and) (JJ ogival)) (NNS noses))))))))))))))) (. .))
(S (NP (NP (NNS Effects)) (PP (IN of) (NP (NP (DT the) (NNP SPH) (NN domain) (NN size)) (CC and) (NP (NN particle) (NN density))))) (VP (VBP are) (VP (VBN studied) (S (VP (VBG considering) (NP (NP (DT the) (NN friction) (NN effect)) (PP (IN between) (NP (NP (DT the) (NN projectile)) (CC and) (NP (DT the) (NN target) (NNS materials))))))))) (. .))
(S (NP (NP (DT The) (JJ simulated) (JJ residual) (NNS velocities)) (CC and) (NP (NP (DT the) (JJ ballistic) (NN limit) (NNS velocities)) (PP (IN from) (NP (DT the) (NNP SFM))))) (VP (VBP agree) (ADVP (RB well)) (PP (IN with) (NP (DT the) (VBN published) (JJ experimental) (NNS data)))) (. .))
(S (NP (DT The) (NN study)) (VP (VBZ shows) (SBAR (IN that) (S (NP (NNP SFM)) (VP (VBZ is) (ADJP (JJ able) (S (VP (TO to) (VP (VB emulate) (NP (NP (DT the) (JJ same) (NN failure) (NN mechanisms)) (PP (IN of) (NP (DT the) (NN steel) (CC and) (NN aluminum) (NNS plates))) (SBAR (IN as) (S (VP (VBN observed) (PP (IN in) (NP (JJ various) (JJ experimental) (NNS investigations)))))) (PP (IN for) (NP (NP (JJ initial) (NN impact) (NN velocity)) (PP (IN of) (NP (NP (CD 170) (NNS m/s)) (CC and) (ADJP (JJR higher))))))))))))))) (. .))
