(S (NP (NNP Systolic) (NNPS Arrays)) (VP (VBP are) (NP (CD one)) (PP (IN of) (NP (NP (DT the) (ADJP (RBS most) (JJ popular)) (NN compute) (NNS substrates)) (PP (IN within) (NP (NNP Deep) (NNP Learning) (NNS accelerators))))) (NP (NN today)) (, ,) (SBAR (IN as) (S (NP (PRP they)) (VP (VBP provide) (NP (NP (ADJP (RB extremely) (JJ high)) (NN efficiency)) (PP (IN for) (S (VP (VBG running) (NP (NN dense) (NN matrix) (NNS multiplications)))))))))) (. .))
(S (ADVP (RB However)) (, ,) (NP (DT the) (NN research) (NN community)) (VP (VBZ lacks) (NP (NP (NNS tools)) (PP (TO to) (NP (NP (NNS insights)) (PP (IN on) (NP (NP (DT both) (NP (DT the) (NN design) (JJ trade-offs)) (CC and) (NP (JJ efficient) (NN mapping) (NNS strategies))) (PP (IN for) (NP (ADJP (NN systolic-array) (VBN based)) (NNS accelerators))))))))) (. .))
(S (NP (PRP We)) (VP (VBP introduce) (NP (NP (JJ Systolic) (NNP CNN) (NNP Accelerator) (NNP Simulator)) (PRN (-LRB- -LRB-) (NP (NNP SCALE-Sim)) (-RRB- -RRB-)) (, ,) (SBAR (WHNP (WDT which)) (S (VP (VBZ is) (NP (DT a) (JJ configurable) (ADJP (JJ systolic) (NN array) (VBN based)) (NN cycle) (NN accurate) (NNP DNN) (NN accelerator) (NN simulator))))))) (. .))
(S (NP (JJ SCALE-Sim)) (VP (NNS exposes) (NP (NP (JJ various) (JJ micro-architectural) (NNS features)) (CONJP (RB as) (RB well) (IN as)) (NP (NN system) (NN integration) (NNS parameters))) (PP (TO to) (NP (DT the) (NN designer))) (S (VP (TO to) (VP (VB enable) (NP (JJ comprehensive) (NN design) (NN space) (NN exploration)))))) (. .))
(S (NP (DT This)) (VP (VBZ is) (NP (NP (DT the) (JJ first) (JJ systolic-array) (NN simulator)) (VP (VBD tuned) (PP (IN for) (S (VP (VBG running) (NP (NNP DNNs))))))) (PP (TO to) (NP (NP (DT the) (JJS best)) (PP (IN of) (NP (PRP$ our) (NN knowledge)))))) (. .))
(S (S (VP (VBG Using) (NP (NNP SCALE-Sim)))) (, ,) (NP (PRP we)) (VP (VP (VBP conduct) (NP (NP (DT a) (NN suite)) (PP (IN of) (NP (NN case) (NNS studies))))) (CC and) (VP (VB demonstrate) (NP (NP (DT the) (NN effect)) (PP (IN of) (NP (NP (NN bandwidth)) (, ,) (NP (NNS data) (NN flow)) (CC and) (NP (JJ aspect) (NN ratio)))) (PP (IN on) (NP (NP (DT the) (JJ overall) (NN runtime) (CC and) (NN energy)) (PP (IN of) (NP (NNP Deep) (NNP Learning) (NNS kernels))))) (PP (IN across) (NP (NN vision) (, ,) (NN speech) (, ,) (NN text) (, ,) (CC and) (NNS games)))))) (. .))
(S (NP (PRP We)) (VP (VBP believe) (SBAR (IN that) (S (NP (DT these) (NNS insights)) (VP (MD will) (VP (VB be) (ADJP (RB highly) (JJ beneficial) (PP (TO to) (NP (NP (NNS architects)) (CC and) (NP (NNP ML) (NNS practitioners)))))))))) (. .))
