(S (NP (NP (DT The) (NN efficacy)) (PP (IN of) (NP (JJ deep) (NN learning)))) (VP (VBZ has) (VP (VBN resulted) (PP (IN in) (NP (NP (PRP$ its) (NN use)) (PP (IN in) (NP (NP (DT a) (VBG growing) (NN number)) (PP (IN of) (NP (NNS applications))))))))) (. .))
(S (NP (NP (DT The) (NNP Volta) (NNS graphics) (NN processor) (NN unit) (PRN (-LRB- -LRB-) (NNP GPU) (-RRB- -RRB-)) (NN architecture)) (PP (IN from) (NP (NNP NVIDIA)))) (VP (VBD introduced) (NP (NP (DT a) (JJ specialized) (JJ functional) (NN unit)) (, ,) (NP (DT the) (`` ``) (NN tensor) (NN core) ('' '')) (, ,) (SBAR (WHNP (WDT that)) (S (VP (VBZ helps) (S (VP (VB meet) (NP (NP (DT the) (VBG growing) (NN demand)) (PP (IN for) (NP (NP (JJR higher) (NN performance)) (PP (IN for) (NP (JJ deep) (NN learning))))))))))))) (. .))
(S (PP (IN In) (NP (DT this) (NN paper))) (NP (PRP we)) (VP (VBP study) (NP (NP (DT the) (NN design)) (PP (IN of) (NP (NP (DT the) (NN tensor) (NNS cores)) (PP (IN in) (NP (NP (NNP NVIDIA) (POS 's)) (NNP Volta) (CC and) (NNP Turing) (NNS architectures))))))) (. .))
(S (NP (PRP We)) (ADVP (VBP further)) (VP (VB propose) (NP (NP (DT an) (JJ architectural) (NN model)) (PP (IN for) (NP (NP (DT the) (NN tensor) (NNS cores)) (PP (IN in) (NP (NNP Volta))))))) (. .))
(S (NP (PRP We)) (ADVP (RB also)) (VP (VBP describe) (NP (NP (NN support)) (VP (VBD added) (S (VP (TO to) (VP (VB enable) (S (NP (NNP GPGPU-Sim)) (VP (TO to) (VP (VB run) (NP (NP (NNP CUTLASS)) (, ,) (NP (NP (DT an) (JJ open-source) (NNP CUDA) (NNP C++) (NN template) (NN library)) (VP (VBG providing) (NP (NP (JJ customizable) (NNP GEMM) (VBZ templates)) (SBAR (WHNP (IN that)) (S (VP (JJ utilize) (NP (NN tensor) (NNS cores)))))))))))))))))) (. .))
